Version 4
SHEET 1 2200 1336
WIRE 176 -208 176 -272
WIRE 272 -208 272 -256
WIRE 1824 -144 1760 -144
WIRE 1952 -144 1904 -144
WIRE 1584 -128 1456 -128
WIRE 176 -64 176 -128
WIRE 688 -64 624 -64
WIRE 816 -64 768 -64
WIRE 448 -48 320 -48
WIRE 272 -32 272 -128
WIRE 1520 -16 1520 -48
WIRE 1872 -16 1872 -48
WIRE 1456 0 1456 -128
WIRE 1488 0 1456 0
WIRE 1760 0 1760 -144
WIRE 1840 0 1760 0
WIRE 1584 16 1584 -128
WIRE 1584 16 1552 16
WIRE 1600 16 1584 16
WIRE 1680 16 1664 16
WIRE 1760 16 1760 0
WIRE 1952 16 1952 -144
WIRE 1952 16 1904 16
WIRE 1488 32 1296 32
WIRE 1840 32 1792 32
WIRE 384 64 384 32
WIRE 736 64 736 32
WIRE 976 64 944 64
WIRE 992 64 976 64
WIRE 1104 64 1072 64
WIRE 1200 64 1104 64
WIRE 1216 64 1200 64
WIRE 1296 64 1296 32
WIRE 320 80 320 -48
WIRE 352 80 320 80
WIRE 624 80 624 -64
WIRE 704 80 624 80
WIRE 1104 80 1104 64
WIRE 1200 80 1200 64
WIRE -416 96 -544 96
WIRE -320 96 -336 96
WIRE -192 96 -240 96
WIRE -144 96 -192 96
WIRE -128 96 -144 96
WIRE -16 96 -48 96
WIRE 80 96 -16 96
WIRE 96 96 80 96
WIRE 448 96 448 -48
WIRE 448 96 416 96
WIRE 464 96 448 96
WIRE 544 96 528 96
WIRE 624 96 624 80
WIRE 816 96 816 -64
WIRE 816 96 768 96
WIRE 944 96 944 64
WIRE 944 96 816 96
WIRE -16 112 -16 96
WIRE 80 112 80 96
WIRE 176 112 176 96
WIRE 352 112 176 112
WIRE 704 112 656 112
WIRE 1152 144 1104 144
WIRE 1200 144 1152 144
WIRE 32 176 -16 176
WIRE 80 176 32 176
WIRE 1152 176 1152 144
WIRE 32 208 32 176
WIRE 976 224 976 64
WIRE 1104 224 1040 224
WIRE 1200 224 1104 224
WIRE 1232 224 1200 224
WIRE 1296 224 1296 64
WIRE -144 256 -144 96
WIRE -16 256 -80 256
WIRE 80 256 -16 256
WIRE 112 256 80 256
WIRE 176 256 176 112
WIRE 1792 288 1792 32
WIRE 1152 304 1104 304
WIRE 1200 304 1152 304
WIRE 32 336 -16 336
WIRE 80 336 32 336
WIRE 1152 336 1152 304
WIRE -544 368 -544 96
WIRE 32 368 32 336
WIRE 656 368 656 112
FLAG -544 368 0
FLAG -192 96 Vin
FLAG 32 208 0
FLAG 32 368 0
FLAG 272 -32 0
FLAG 176 -64 0
FLAG 272 -256 VCC
FLAG 736 32 VCC
FLAG 656 368 0
FLAG 176 -272 VNEG
FLAG 736 128 VNEG
FLAG 1152 176 0
FLAG 1152 336 0
FLAG 384 32 VCC
FLAG 384 128 VNEG
FLAG 1872 -48 VCC
FLAG 1792 288 0
FLAG 1872 48 VNEG
FLAG 1520 -48 VCC
FLAG 1520 48 VNEG
SYMBOL voltage -320 96 R90
WINDOW 123 24 124 Left 2
WINDOW 39 0 0 Left 2
SYMATTR Value2 AC 1 0
SYMATTR InstName V1
SYMATTR Value SINE(0 75 60)
SYMBOL voltage -224 96 M270
WINDOW 39 0 0 Left 2
WINDOW 3 24 -12 Left 2
WINDOW 123 0 0 Left 2
SYMATTR Value SINE(0 .1 10000)
SYMATTR InstName V2
SYMBOL res -32 80 R90
WINDOW 0 0 56 VBottom 2
WINDOW 3 -56 57 VTop 2
SYMATTR InstName R5
SYMATTR Value 164k
SYMBOL res 192 80 R90
WINDOW 0 0 56 VBottom 2
WINDOW 3 -56 56 VTop 2
SYMATTR InstName R6
SYMATTR Value 164k
SYMBOL res 96 352 R180
WINDOW 0 -38 32 Left 2
WINDOW 3 43 32 Left 2
SYMATTR InstName R7
SYMATTR Value 164k
SYMBOL cap 64 112 R0
SYMATTR InstName C1
SYMATTR Value .016µF
SYMBOL cap -80 240 R90
WINDOW 0 0 32 VBottom 2
WINDOW 3 32 32 VTop 2
SYMATTR InstName C2
SYMATTR Value .016µF
SYMATTR SpiceLine Rser=3.9
SYMBOL cap 176 240 R90
WINDOW 0 0 32 VBottom 2
WINDOW 3 32 32 VTop 2
SYMATTR InstName C3
SYMATTR Value .016µF
SYMATTR SpiceLine Rser=3.9
SYMBOL res 640 80 R90
WINDOW 0 0 56 VBottom 2
WINDOW 3 32 56 VTop 2
SYMATTR InstName R8
SYMATTR Value 1k
SYMBOL voltage 272 -224 R0
WINDOW 123 0 0 Left 2
WINDOW 39 0 0 Left 2
SYMATTR InstName V3
SYMATTR Value 10
SYMBOL voltage 176 -224 R0
WINDOW 123 0 0 Left 2
WINDOW 39 0 0 Left 2
SYMATTR InstName V4
SYMATTR Value -10v
SYMBOL cap -32 112 R0
SYMATTR InstName C4
SYMATTR Value .016µF
SYMBOL res 0 352 R180
WINDOW 0 -38 32 Left 2
WINDOW 3 43 32 Left 2
SYMATTR InstName R1
SYMATTR Value 164k
SYMBOL res 1088 48 R90
WINDOW 0 0 56 VBottom 2
WINDOW 3 -56 57 VTop 2
SYMATTR InstName R2
SYMATTR Value 8.2k
SYMBOL res 1312 48 R90
WINDOW 0 0 56 VBottom 2
WINDOW 3 -56 56 VTop 2
SYMATTR InstName R3
SYMATTR Value 8.2k
SYMBOL res 1216 320 R180
WINDOW 0 -38 32 Left 2
WINDOW 3 43 32 Left 2
SYMATTR InstName R4
SYMATTR Value 8.2k
SYMBOL cap 1184 80 R0
SYMATTR InstName C5
SYMATTR Value .33µF
SYMBOL cap 1040 208 R90
WINDOW 0 0 32 VBottom 2
WINDOW 3 32 32 VTop 2
SYMATTR InstName C6
SYMATTR Value .33µF
SYMBOL cap 1296 208 R90
WINDOW 0 0 32 VBottom 2
WINDOW 3 32 32 VTop 2
SYMATTR InstName C7
SYMATTR Value .33µF
SYMBOL cap 1088 80 R0
SYMATTR InstName C8
SYMATTR Value .33µF
SYMBOL res 1120 320 R180
WINDOW 0 -38 32 Left 2
WINDOW 3 43 32 Left 2
SYMATTR InstName R9
SYMATTR Value 8.2k
SYMBOL Opamps\\LTC6244HV 736 96 R0
SYMATTR InstName U1
SYMBOL res 784 -80 R90
WINDOW 0 0 56 VBottom 2
WINDOW 3 32 56 VTop 2
SYMATTR InstName R17
SYMATTR Value 1k
SYMBOL cap 528 80 R90
WINDOW 0 0 32 VBottom 2
WINDOW 3 32 32 VTop 2
SYMATTR InstName C14
SYMATTR Value 1µ
SYMBOL Opamps\\LTC6244HV 384 96 R0
SYMATTR InstName U3
SYMBOL res 1776 0 R90
WINDOW 0 0 56 VBottom 2
WINDOW 3 32 56 VTop 2
SYMATTR InstName R10
SYMATTR Value 1k
SYMBOL Opamps\\LTC6244HV 1872 16 R0
SYMATTR InstName U2
SYMBOL res 1920 -160 R90
WINDOW 0 0 56 VBottom 2
WINDOW 3 32 56 VTop 2
SYMATTR InstName R11
SYMATTR Value 15k
SYMBOL cap 1664 0 R90
WINDOW 0 0 32 VBottom 2
WINDOW 3 32 32 VTop 2
SYMATTR InstName C9
SYMATTR Value 1µ
SYMBOL Opamps\\LTC6244HV 1520 16 R0
SYMATTR InstName U4
TEXT -640 -32 Left 2 !.tran 0 .2 .1 .00001 uic
TEXT -992 -160 Left 2 ;This is a circuit simulation of a galvanically isolated\nsignal conditioning circuit designed to separate\ntransients from the 60Hz carrier of wall-juice, and\nto buffer the input properly for a high speed ADC.
TEXT -296 24 Left 2 ;FM Signal
TEXT -448 24 Left 2 ;60Hz Main
TEXT -376 -32 Left 2 !;ac oct 30 10 125000
