Version 4
SHEET 1 2200 1336
WIRE 176 -208 176 -272
WIRE 272 -208 272 -256
WIRE 176 -64 176 -128
WIRE 1168 -48 1120 -48
WIRE 1312 -48 1248 -48
WIRE 272 -32 272 -128
WIRE 608 -16 400 -16
WIRE 512 80 512 48
WIRE 1232 80 1232 48
WIRE -416 96 -544 96
WIRE -320 96 -336 96
WIRE -192 96 -240 96
WIRE -32 96 -192 96
WIRE -16 96 -32 96
WIRE 96 96 64 96
WIRE 192 96 96 96
WIRE 208 96 192 96
WIRE 400 96 400 -16
WIRE 480 96 400 96
WIRE 1120 96 1120 -48
WIRE 1200 96 1120 96
WIRE 96 112 96 96
WIRE 192 112 192 96
WIRE 608 112 608 -16
WIRE 608 112 544 112
WIRE 720 112 608 112
WIRE 848 112 800 112
WIRE 944 112 896 112
WIRE 1040 112 1024 112
WIRE 1120 112 1120 96
WIRE 1312 112 1312 -48
WIRE 1312 112 1264 112
WIRE 1360 112 1312 112
WIRE 288 128 288 96
WIRE 352 128 288 128
WIRE 480 128 432 128
WIRE 1200 128 1152 128
WIRE 144 176 96 176
WIRE 192 176 144 176
WIRE 512 176 512 144
WIRE 144 208 144 176
WIRE 848 208 848 112
WIRE 896 208 896 112
WIRE 512 240 512 176
WIRE -32 256 -32 96
WIRE 96 256 32 256
WIRE 192 256 96 256
WIRE 224 256 192 256
WIRE 288 256 288 128
WIRE 144 336 96 336
WIRE 192 336 144 336
WIRE -544 368 -544 96
WIRE 144 368 144 336
WIRE 848 384 848 288
WIRE 896 384 896 288
WIRE 1152 384 1152 128
FLAG -544 368 0
FLAG 848 384 0
FLAG 896 384 0
FLAG -192 96 Vin
FLAG 144 208 0
FLAG 144 368 0
FLAG 272 -32 0
FLAG 176 -64 0
FLAG 272 -256 VCC
FLAG 1232 48 VCC
FLAG 1152 384 0
FLAG 512 48 VCC
FLAG 176 -272 VNEG
FLAG 512 176 VNEG
FLAG 1232 144 VNEG
SYMBOL voltage -320 96 R90
WINDOW 123 24 124 Left 2
WINDOW 39 0 0 Left 2
SYMATTR Value2 AC 1 0
SYMATTR InstName V1
SYMATTR Value SINE(0 75 60)
SYMBOL ind2 864 304 R180
WINDOW 0 36 80 Left 2
WINDOW 3 36 40 Left 2
SYMATTR InstName L1
SYMATTR Value .002
SYMATTR Type ind
SYMBOL ind2 880 304 M180
WINDOW 0 36 80 Left 2
WINDOW 3 36 40 Left 2
SYMATTR InstName L2
SYMATTR Value .001992
SYMATTR Type ind
SYMBOL res 816 96 R90
WINDOW 0 0 56 VBottom 2
WINDOW 3 32 56 VTop 2
SYMATTR InstName R2
SYMATTR Value 100.0008
SYMBOL res 1040 96 R90
WINDOW 0 0 56 VBottom 2
WINDOW 3 32 56 VTop 2
SYMATTR InstName R3
SYMATTR Value .001
SYMBOL voltage -224 96 M270
WINDOW 39 0 0 Left 2
SYMATTR InstName V2
SYMATTR Value ""
SYMBOL Opamps\\LTC6082 1232 112 R0
SYMATTR InstName U2
SYMBOL res 80 80 R90
WINDOW 0 0 56 VBottom 2
WINDOW 3 -56 57 VTop 2
SYMATTR InstName R5
SYMATTR Value 8.2k
SYMBOL res 304 80 R90
WINDOW 0 0 56 VBottom 2
WINDOW 3 -56 56 VTop 2
SYMATTR InstName R6
SYMATTR Value 8.2k
SYMBOL res 208 352 R180
WINDOW 0 -38 32 Left 2
WINDOW 3 43 32 Left 2
SYMATTR InstName R7
SYMATTR Value 8.2k
SYMBOL cap 176 112 R0
SYMATTR InstName C1
SYMATTR Value .33µF
SYMBOL cap 32 240 R90
WINDOW 0 0 32 VBottom 2
WINDOW 3 32 32 VTop 2
SYMATTR InstName C2
SYMATTR Value .33µF
SYMBOL cap 288 240 R90
WINDOW 0 0 32 VBottom 2
WINDOW 3 32 32 VTop 2
SYMATTR InstName C3
SYMATTR Value .33µF
SYMBOL res 1136 96 R90
WINDOW 0 0 56 VBottom 2
WINDOW 3 32 56 VTop 2
SYMATTR InstName R8
SYMATTR Value 1k
SYMBOL voltage 272 -224 R0
WINDOW 123 0 0 Left 2
WINDOW 39 0 0 Left 2
SYMATTR InstName V3
SYMATTR Value 5
SYMBOL res 1264 -64 R90
WINDOW 0 0 56 VBottom 2
WINDOW 3 32 56 VTop 2
SYMATTR InstName R14
SYMATTR Value 50k
SYMBOL voltage 176 -224 R0
WINDOW 123 0 0 Left 2
WINDOW 39 0 0 Left 2
SYMATTR InstName V4
SYMATTR Value -5v
SYMBOL Opamps\\LTC6082 512 112 R0
SYMATTR InstName U1
SYMBOL cap 80 112 R0
SYMATTR InstName C4
SYMATTR Value .33µF
SYMBOL res 112 352 R180
WINDOW 0 -38 32 Left 2
WINDOW 3 43 32 Left 2
SYMATTR InstName R1
SYMATTR Value 8.2k
SYMBOL res 448 112 R90
WINDOW 0 0 56 VBottom 2
WINDOW 3 32 56 VTop 2
SYMATTR InstName R4
SYMATTR Value 100
TEXT -640 -32 Left 2 !.tran 0 .2 .1 .00001 uic
TEXT 824 96 Left 2 !K L1 L2 1
TEXT -992 -160 Left 2 ;This is a circuit simulation of a galvanically isolated\nsignal conditioning circuit designed to separate\ntransients from the 60Hz carrier of wall-juice, and\nto buffer the input properly for a high speed ADC.
TEXT 984 -264 Left 2 ;The output supports transients up to 10V with a\n100kHz bandwidth (limit of transformer), and at \nleast a few LSB within .001V.
TEXT -296 24 Left 2 ;FM Signal
TEXT -448 24 Left 2 ;60Hz Main
TEXT 744 24 Left 2 ;60-Hz Low-Q Twin T Notch
TEXT -376 -32 Left 2 !;ac oct 30 10 100000
