Version 4
SHEET 1 2200 1336
WIRE 688 -64 624 -64
WIRE 816 -64 768 -64
WIRE 448 -48 320 -48
WIRE 384 64 384 32
WIRE 736 64 736 32
WIRE 320 80 320 -48
WIRE 352 80 320 80
WIRE 624 80 624 -64
WIRE 704 80 624 80
WIRE -416 96 -544 96
WIRE -320 96 -336 96
WIRE -192 96 -240 96
WIRE -144 96 -192 96
WIRE -128 96 -144 96
WIRE -16 96 -48 96
WIRE 80 96 -16 96
WIRE 96 96 80 96
WIRE 448 96 448 -48
WIRE 448 96 416 96
WIRE 464 96 448 96
WIRE 544 96 528 96
WIRE 624 96 624 80
WIRE 816 96 816 -64
WIRE 816 96 768 96
WIRE 912 96 816 96
WIRE -16 112 -16 96
WIRE 80 112 80 96
WIRE 176 112 176 96
WIRE 352 112 176 112
WIRE 704 112 656 112
WIRE 32 176 -16 176
WIRE 80 176 32 176
WIRE -656 192 -656 144
WIRE -752 208 -752 144
WIRE 32 208 32 176
WIRE -144 256 -144 96
WIRE -16 256 -80 256
WIRE 80 256 -16 256
WIRE 112 256 80 256
WIRE 176 256 176 112
WIRE 32 336 -16 336
WIRE 80 336 32 336
WIRE -752 352 -752 288
WIRE -656 352 -656 272
WIRE -656 368 -656 352
WIRE -544 368 -544 96
WIRE 32 368 32 336
WIRE 656 368 656 112
WIRE 912 464 912 96
WIRE 912 464 -224 464
WIRE 688 544 624 544
WIRE 816 544 768 544
WIRE 448 560 320 560
WIRE 384 672 384 640
WIRE 736 672 736 640
WIRE 320 688 320 560
WIRE 352 688 320 688
WIRE 624 688 624 544
WIRE 704 688 624 688
WIRE 448 704 448 560
WIRE 448 704 416 704
WIRE 464 704 448 704
WIRE 544 704 528 704
WIRE 624 704 624 688
WIRE 816 704 816 544
WIRE 816 704 768 704
WIRE 352 720 160 720
WIRE 704 720 656 720
WIRE -224 752 -224 464
WIRE -160 752 -224 752
WIRE -144 752 -160 752
WIRE -32 752 -64 752
WIRE 64 752 -32 752
WIRE 80 752 64 752
WIRE 160 752 160 720
WIRE -32 768 -32 752
WIRE 64 768 64 752
WIRE 16 832 -32 832
WIRE 64 832 16 832
WIRE 16 864 16 832
WIRE -160 912 -160 752
WIRE -32 912 -96 912
WIRE 64 912 -32 912
WIRE 96 912 64 912
WIRE 160 912 160 752
WIRE 16 992 -32 992
WIRE 64 992 16 992
WIRE 16 1024 16 992
WIRE 656 1040 656 720
FLAG -544 368 0
FLAG -192 96 Vin
FLAG 32 208 0
FLAG 32 368 0
FLAG -656 352 0
FLAG -752 352 0
FLAG -656 144 VCC
FLAG 736 32 VCC
FLAG 656 368 0
FLAG -752 144 VNEG
FLAG 736 128 VNEG
FLAG 16 864 0
FLAG 16 1024 0
FLAG 384 32 VCC
FLAG 384 128 VNEG
FLAG 736 640 VCC
FLAG 656 1040 0
FLAG 736 736 VNEG
FLAG 384 640 VCC
FLAG 384 736 VNEG
SYMBOL voltage -320 96 R90
WINDOW 123 24 124 Left 2
WINDOW 39 0 0 Left 2
SYMATTR Value2 AC 1 0
SYMATTR InstName V1
SYMATTR Value SINE(0 75 60)
SYMBOL voltage -224 96 M270
WINDOW 39 0 0 Left 2
WINDOW 3 24 -12 Left 2
WINDOW 123 0 0 Left 2
SYMATTR Value SINE(0 .1 10000)
SYMATTR InstName V2
SYMBOL res -32 80 R90
WINDOW 0 0 56 VBottom 2
WINDOW 3 -56 57 VTop 2
SYMATTR InstName R5
SYMATTR Value 164k
SYMBOL res 192 80 R90
WINDOW 0 0 56 VBottom 2
WINDOW 3 -56 56 VTop 2
SYMATTR InstName R6
SYMATTR Value 164k
SYMBOL res 96 352 R180
WINDOW 0 -38 32 Left 2
WINDOW 3 43 32 Left 2
SYMATTR InstName R7
SYMATTR Value 164k
SYMBOL cap 64 112 R0
SYMATTR InstName C1
SYMATTR Value .016µF
SYMBOL cap -80 240 R90
WINDOW 0 0 32 VBottom 2
WINDOW 3 32 32 VTop 2
SYMATTR InstName C2
SYMATTR Value .016µF
SYMATTR SpiceLine Rser=3.9
SYMBOL cap 176 240 R90
WINDOW 0 0 32 VBottom 2
WINDOW 3 32 32 VTop 2
SYMATTR InstName C3
SYMATTR Value .016µF
SYMATTR SpiceLine Rser=3.9
SYMBOL res 640 80 R90
WINDOW 0 0 56 VBottom 2
WINDOW 3 32 56 VTop 2
SYMATTR InstName R8
SYMATTR Value 1k
SYMBOL voltage -656 176 R0
WINDOW 123 0 0 Left 2
WINDOW 39 0 0 Left 2
SYMATTR InstName V3
SYMATTR Value 10
SYMBOL voltage -752 192 R0
WINDOW 123 0 0 Left 2
WINDOW 39 0 0 Left 2
SYMATTR InstName V4
SYMATTR Value -10v
SYMBOL cap -32 112 R0
SYMATTR InstName C4
SYMATTR Value .016µF
SYMBOL res 0 352 R180
WINDOW 0 -38 32 Left 2
WINDOW 3 43 32 Left 2
SYMATTR InstName R1
SYMATTR Value 164k
SYMBOL res -48 736 R90
WINDOW 0 0 56 VBottom 2
WINDOW 3 -56 57 VTop 2
SYMATTR InstName R2
SYMATTR Value 8.2k
SYMBOL res 176 736 R90
WINDOW 0 0 56 VBottom 2
WINDOW 3 -56 56 VTop 2
SYMATTR InstName R3
SYMATTR Value 8.2k
SYMBOL res 80 1008 R180
WINDOW 0 -38 32 Left 2
WINDOW 3 43 32 Left 2
SYMATTR InstName R4
SYMATTR Value 8.2k
SYMBOL cap 48 768 R0
SYMATTR InstName C5
SYMATTR Value .33µF
SYMBOL cap -96 896 R90
WINDOW 0 0 32 VBottom 2
WINDOW 3 32 32 VTop 2
SYMATTR InstName C6
SYMATTR Value .33µF
SYMBOL cap 160 896 R90
WINDOW 0 0 32 VBottom 2
WINDOW 3 32 32 VTop 2
SYMATTR InstName C7
SYMATTR Value .33µF
SYMBOL cap -48 768 R0
SYMATTR InstName C8
SYMATTR Value .33µF
SYMBOL res -16 1008 R180
WINDOW 0 -38 32 Left 2
WINDOW 3 43 32 Left 2
SYMATTR InstName R9
SYMATTR Value 8.2k
SYMBOL Opamps\\LTC6244HV 736 96 R0
SYMATTR InstName U1
SYMBOL res 784 -80 R90
WINDOW 0 0 56 VBottom 2
WINDOW 3 32 56 VTop 2
SYMATTR InstName R17
SYMATTR Value 1k
SYMBOL cap 528 80 R90
WINDOW 0 0 32 VBottom 2
WINDOW 3 32 32 VTop 2
SYMATTR InstName C14
SYMATTR Value 1µ
SYMBOL Opamps\\LTC6244HV 384 96 R0
SYMATTR InstName U3
SYMBOL res 640 688 R90
WINDOW 0 0 56 VBottom 2
WINDOW 3 32 56 VTop 2
SYMATTR InstName R10
SYMATTR Value 1k
SYMBOL Opamps\\LTC6244HV 736 704 R0
SYMATTR InstName U2
SYMBOL res 784 528 R90
WINDOW 0 0 56 VBottom 2
WINDOW 3 32 56 VTop 2
SYMATTR InstName R11
SYMATTR Value 15k
SYMBOL cap 528 688 R90
WINDOW 0 0 32 VBottom 2
WINDOW 3 32 32 VTop 2
SYMATTR InstName C9
SYMATTR Value 1µ
SYMBOL Opamps\\LTC6244HV 384 704 R0
SYMATTR InstName U4
TEXT -648 -40 Left 2 !.tran 0 .2 .1 .00001 uic
TEXT -312 160 Left 2 ;FM Signal
TEXT -448 24 Left 2 ;60Hz Main
TEXT -648 -80 Left 2 !;ac oct 30 10 125000
