Version 4
SHEET 1 1792 1336
WIRE 272 -208 272 -256
WIRE 800 -64 752 -64
WIRE 944 -64 880 -64
WIRE 1376 -64 1328 -64
WIRE 1520 -64 1456 -64
WIRE 272 -32 272 -128
WIRE 864 64 864 32
WIRE 1440 64 1440 32
WIRE 752 80 752 -64
WIRE 832 80 752 80
WIRE 1328 80 1328 -64
WIRE 1408 80 1328 80
WIRE -416 96 -544 96
WIRE -320 96 -336 96
WIRE -192 96 -240 96
WIRE -128 96 -192 96
WIRE 0 96 -48 96
WIRE 96 96 48 96
WIRE 192 96 176 96
WIRE 320 96 272 96
WIRE 400 96 320 96
WIRE 496 96 480 96
WIRE 512 96 496 96
WIRE 672 96 592 96
WIRE 752 96 752 80
WIRE 944 96 944 -64
WIRE 944 96 896 96
WIRE 1040 96 944 96
WIRE 1136 96 1120 96
WIRE 1152 96 1136 96
WIRE 1248 96 1232 96
WIRE 1328 96 1328 80
WIRE 1520 96 1520 -64
WIRE 1520 96 1472 96
WIRE 1648 96 1520 96
WIRE 496 112 496 96
WIRE 832 112 784 112
WIRE 1136 112 1136 96
WIRE 1408 112 1360 112
WIRE 0 192 0 96
WIRE 48 192 48 96
WIRE 272 192 272 96
WIRE 496 208 496 176
WIRE 1136 208 1136 176
WIRE 864 224 864 128
WIRE 1440 224 1440 128
WIRE 400 256 400 96
WIRE 496 256 464 256
WIRE 528 256 496 256
WIRE 592 256 592 96
WIRE 1040 256 1040 96
WIRE 1136 256 1104 256
WIRE 1168 256 1136 256
WIRE 1232 256 1232 96
WIRE -544 368 -544 96
WIRE 0 368 0 272
WIRE 48 368 48 272
WIRE 272 368 272 272
WIRE 496 368 496 336
WIRE 784 368 784 112
WIRE 864 368 864 304
WIRE 1136 368 1136 336
WIRE 1360 368 1360 112
WIRE 1440 368 1440 304
FLAG -544 368 0
FLAG 0 368 0
FLAG 48 368 0
FLAG 272 368 0
FLAG 320 96 Vsd
FLAG -192 96 Vin
FLAG 496 208 0
FLAG 496 368 0
FLAG 272 -32 0
FLAG 864 368 0
FLAG 272 -256 VCC
FLAG 864 32 VCC
FLAG 784 368 0
FLAG 1136 208 0
FLAG 1136 368 0
FLAG 1440 368 0
FLAG 1440 32 VCC
FLAG 1360 368 0
SYMBOL voltage -320 96 R90
WINDOW 123 0 0 Left 2
WINDOW 39 0 0 Left 2
SYMATTR InstName V1
SYMATTR Value SINE(0 60 60)
SYMBOL ind2 16 288 R180
WINDOW 0 36 80 Left 2
WINDOW 3 36 40 Left 2
SYMATTR InstName L1
SYMATTR Value .002
SYMATTR Type ind
SYMBOL ind2 32 288 M180
WINDOW 0 36 80 Left 2
WINDOW 3 36 40 Left 2
SYMATTR InstName L2
SYMATTR Value .001992
SYMATTR Type ind
SYMBOL res -32 80 R90
WINDOW 0 0 56 VBottom 2
WINDOW 3 32 56 VTop 2
SYMATTR InstName R2
SYMATTR Value .0008
SYMBOL res 192 80 R90
WINDOW 0 0 56 VBottom 2
WINDOW 3 32 56 VTop 2
SYMATTR InstName R3
SYMATTR Value .001
SYMBOL res 288 80 R90
WINDOW 0 0 56 VBottom 2
WINDOW 3 32 56 VTop 2
SYMATTR InstName R4
SYMATTR Value 100k
SYMATTR SpiceLine tol=5
SYMBOL res 256 176 R0
SYMATTR InstName R1
SYMATTR Value 9.07k
SYMATTR SpiceLine tol=1
SYMBOL voltage -224 96 M270
WINDOW 123 0 0 Left 2
WINDOW 39 0 0 Left 2
SYMATTR InstName V2
SYMATTR Value SFFM(0 .01 1000 .4 500)
SYMBOL Opamps\\LTC6082 864 96 R0
SYMATTR InstName U2
SYMBOL res 496 80 R90
WINDOW 0 0 56 VBottom 2
WINDOW 3 -56 57 VTop 2
SYMATTR InstName R5
SYMATTR Value 8.2k
SYMBOL res 608 80 R90
WINDOW 0 0 56 VBottom 2
WINDOW 3 -56 56 VTop 2
SYMATTR InstName R6
SYMATTR Value 8.2k
SYMBOL res 512 352 R180
WINDOW 0 -38 32 Left 2
WINDOW 3 43 32 Left 2
SYMATTR InstName R7
SYMATTR Value 4.1k
SYMBOL cap 480 112 R0
SYMATTR InstName C1
SYMATTR Value .66µF
SYMBOL cap 464 240 R90
WINDOW 0 0 32 VBottom 2
WINDOW 3 32 32 VTop 2
SYMATTR InstName C2
SYMATTR Value .33µF
SYMBOL cap 592 240 R90
WINDOW 0 0 32 VBottom 2
WINDOW 3 32 32 VTop 2
SYMATTR InstName C3
SYMATTR Value .33µF
SYMBOL res 768 80 R90
WINDOW 0 0 56 VBottom 2
WINDOW 3 32 56 VTop 2
SYMATTR InstName R8
SYMATTR Value 1k
SYMBOL voltage 272 -224 R0
WINDOW 123 0 0 Left 2
WINDOW 39 0 0 Left 2
SYMATTR InstName V3
SYMATTR Value 5
SYMBOL res 896 -80 R90
WINDOW 0 0 56 VBottom 2
WINDOW 3 32 56 VTop 2
SYMATTR InstName R14
SYMATTR Value 10k
SYMBOL voltage 864 208 R0
WINDOW 123 0 0 Left 2
WINDOW 39 0 0 Left 2
SYMATTR InstName V4
SYMATTR Value -5v
SYMBOL res 1136 80 R90
WINDOW 0 0 56 VBottom 2
WINDOW 3 -56 57 VTop 2
SYMATTR InstName R9
SYMATTR Value 8.2k
SYMBOL res 1248 80 R90
WINDOW 0 0 56 VBottom 2
WINDOW 3 -56 56 VTop 2
SYMATTR InstName R10
SYMATTR Value 8.2k
SYMBOL res 1152 352 R180
WINDOW 0 -38 32 Left 2
WINDOW 3 43 32 Left 2
SYMATTR InstName R11
SYMATTR Value 4.1k
SYMBOL cap 1120 112 R0
SYMATTR InstName C4
SYMATTR Value .66µF
SYMBOL cap 1104 240 R90
WINDOW 0 0 32 VBottom 2
WINDOW 3 32 32 VTop 2
SYMATTR InstName C5
SYMATTR Value .33µF
SYMBOL cap 1232 240 R90
WINDOW 0 0 32 VBottom 2
WINDOW 3 32 32 VTop 2
SYMATTR InstName C6
SYMATTR Value .33µF
SYMBOL Opamps\\LTC6082 1440 96 R0
SYMATTR InstName U1
SYMBOL res 1472 -80 R90
WINDOW 0 0 56 VBottom 2
WINDOW 3 32 56 VTop 2
SYMATTR InstName R12
SYMATTR Value 20k
SYMBOL voltage 1440 208 R0
WINDOW 123 0 0 Left 2
WINDOW 39 0 0 Left 2
SYMATTR InstName V5
SYMATTR Value -5v
SYMBOL res 1344 80 R90
WINDOW 0 0 56 VBottom 2
WINDOW 3 32 56 VTop 2
SYMATTR InstName R13
SYMATTR Value 1k
TEXT -640 -32 Left 2 !.tran 0 .2 .1 startup uic
TEXT -24 80 Left 2 !K L1 L2 1
TEXT -992 -160 Left 2 ;This is a circuit simulation of a galvanically isolated\nsignal conditioning circuit designed to separate\ntransients from the 60Hz carrier of wall-juice, and\nto buffer the input properly for a high speed ADC.
TEXT 992 -152 Left 2 ;The output supports transients up to 10V with a\n100kHz bandwidth (limit of transformer), and at \nleast a few LSB within .001V.
TEXT -296 24 Left 2 ;FM Signal
TEXT -448 24 Left 2 ;60Hz Main
TEXT 360 8 Left 2 ;60-Hz Low-Q Twin T Notch
TEXT 976 8 Left 2 ;60-Hz Low-Q Twin T Notch
